-------------------------------------------------------
          Amber 14 SANDER                              2014
          -------------------------------------------------------

  [-O]verwriting output

File Assignments:

 Here is the input file:

polyA-polyT 10-mer: 100ps MD
 &cntrl
  imin = 0, irest = 1, ntx = 7,
  ntb = 2, pres0 = 1.0, ntp = 1,
  taup = 2.0,
  cut = 10.0, ntr = 0,
  ntc = 2, ntf = 2,
  tempi = 300.0, temp0 = 300.0,
  ntt = 3, gamma_ln = 1.0,
  nstlim = 50000, dt = 0.002,
  ntpr = 100, ntwx = 100, ntwr = 1000
 /

--------------------------------------------------------------------------------
   1.  RESOURCE   USE:
--------------------------------------------------------------------------------

 getting new box info from bottom of inpcrd

 NATOM  =    9788 NTYPES =      17 NBONH =    9366 MBONA  =     452
 NTHETH =     554 MTHETA =     694 NPHIH =    1117 MPHIA  =    1276
 NHPARM =       0 NPARM  =       0 NNB   =   15738 NRES   =    3082
 NBONA  =     452 NTHETA =     694 NPHIA =    1276 NUMBND =      38
 NUMANG =      69 NPTRA  =      45 NATYP =      28 NPHB   =       1
 IFBOX  =       2 NMXRS  =      33 IFCAP =       0 NEXTRA =       0
 NCOPY  =       0

     BOX TYPE: TRUNCATED OCTAHEDRON

--------------------------------------------------------------------------------
   2.  CONTROL  DATA  FOR  THE  RUN
--------------------------------------------------------------------------------

General flags:
     imin    =       0, nmropt  =       0

Nature and format of input:
     ntx     =       7, irest   =       1, ntrx    =       1

Nature and format of output:
     ntxo    =       1, ntpr    =     100, ntrx    =       1, ntwr    =    1000
     iwrap   =       0, ntwx    =     100, ntwv    =       0, ntwe    =       0
     ioutfm  =       0, ntwprt  =       0, idecomp =       0, rbornstat=      0

Potential function:
     ntf     =       2, ntb     =       2, igb     =       0, nsnb    =      25
     ipol    =       0, gbsa    =       0, iesp    =       0
     dielc   =   1.00000, cut     =  10.00000, intdiel =   1.00000

Frozen or restrained atoms:
     ibelly  =       0, ntr     =       0

Molecular dynamics:
     nstlim  =     50000, nscm    =      1000, nrespa  =         1
     t       =   0.00000, dt      =   0.00200, vlimit  =  20.00000

Langevin dynamics temperature regulation:
     ig      =   71277
     temp0   = 300.00000, tempi   = 300.00000, gamma_ln=   1.00000

Pressure regulation:
     ntp     =       1
     pres0   =   1.00000, comp    =  44.60000, taup    =   2.00000

SHAKE:
     ntc     =       2, jfastw  =       0
     tol     =   0.00001

Ewald parameters:
     verbose =       0, ew_type =       0, nbflag  =       1, use_pme =       1
     vdwmeth =       1, eedmeth =       1, netfrc  =       1
     Box X =   53.537   Box Y =   53.537   Box Z =   53.537
     Alpha =  109.471   Beta  =  109.471   Gamma =  109.471
     NFFT1 =   54       NFFT2 =   54       NFFT3 =   54
     Cutoff=   10.000   Tol   =0.100E-04
     Ewald Coefficient =  0.27511
     Interpolation order =    4

--------------------------------------------------------------------------------
   3.  ATOMIC COORDINATES AND VELOCITIES
--------------------------------------------------------------------------------

 begin time read from input coords =    20.000 ps

 Number of triangulated 3-point waters found:     3044

     Sum of charges from parm topology file =   0.00000008
     Forcing neutrality...

--------------------------------------------------------------------------------
   4.  RESULTS
 NSTEP =      100   TIME(PS) =      20.200  TEMP(K) =   299.47  PRESS =  -978.9
 Etot   =    -27335.7226  EKtot   =      5950.5256  EPtot      =    -33286.2482
 BOND   =       162.8891  ANGLE   =       320.8497  DIHED      =       453.4268
 1-4 NB =       161.3858  1-4 EEL =      -337.3343  VDWAALS    =      3800.7671
 EELEC  =    -37848.2325  EHBOND  =         0.0000  RESTRAINT  =         0.0000
 EKCMT  =      2729.3985  VIRIAL  =      5214.8543  VOLUME     =    117597.9870
                                                    Density    =         0.8654
 Ewald error estimate:   0.3624E-04
 ------------------------------------------------------------------------------

      A V E R A G E S   O V E R   50000 S T E P S

 NSTEP =    50000   TIME(PS) =     120.000  TEMP(K) =   299.79  PRESS =   -83.4
 Etot   =    -28320.2048  EKtot   =      5956.8385  EPtot      =    -34277.0433
 BOND   =       155.1497  ANGLE   =       338.4707  DIHED      =       453.6064
 1-4 NB =       168.0166  1-4 EEL =      -352.8364  VDWAALS    =      3921.7025
 EELEC  =    -38961.1529  EHBOND  =         0.0000  RESTRAINT  =         0.0000
 EKCMT  =      2746.5038  VIRIAL  =      2940.6816  VOLUME     =     99176.1886
                                                    Density    =         1.0276
 Ewald error estimate:   0.1083E-03
 ------------------------------------------------------------------------------

      R M S  F L U C T U A T I O N S

 NSTEP =    50000   TIME(PS) =     120.000  TEMP(K) =     2.93  PRESS =   296.1
 Etot   =       222.0500  EKtot   =        58.2617  EPtot      =       210.4441
 BOND   =        10.2774  ANGLE   =        14.1996  DIHED      =         8.4414
 1-4 NB =         4.7662  1-4 EEL =        12.5499  VDWAALS    =        86.5066
 EELEC  =       259.1164  EHBOND  =         0.0000  RESTRAINT  =         0.0000
 EKCMT  =        39.9660  VIRIAL  =       664.8704  VOLUME     =      3907.6900
                                                    Density    =         0.0365
 Ewald error estimate:   0.8180E-04
 ------------------------------------------------------------------------------
