-------------------------------------------------------
          Amber 14 SANDER                              2014
          -------------------------------------------------------

  [-O]verwriting output

File Assignments:

 Here is the input file:

10-mer DNA MD Generalized Born, 12 angstrom cut off
 &cntrl
  imin = 0, ntb = 0,
  igb = 1, ntpr = 100, ntwx = 100,
  ntt = 3, gamma_ln = 1.0,
  tempi = 300.0, temp0 = 300.0
  nstlim = 100000, dt = 0.001,
  cut = 12.0
 /

--------------------------------------------------------------------------------
   1.  RESOURCE   USE:
--------------------------------------------------------------------------------

 NATOM  =     638 NTYPES =      14 NBONH =     234 MBONA  =     452
 NTHETH =     554 MTHETA =     694 NPHIH =    1100 MPHIA  =    1276
 NHPARM =       0 NPARM  =       0 NNB   =    3544 NRES   =      20
 NBONA  =     452 NTHETA =     694 NPHIA =    1276 NUMBND =      36
 NUMANG =      69 NPTRA  =      45 NATYP =      25 NPHB   =       0
 IFBOX  =       0 NMXRS  =      33 IFCAP =       0 NEXTRA =       0
 NCOPY  =       0

 Implicit solvent radii are modified Bondi radii (mbondi)

--------------------------------------------------------------------------------
   2.  CONTROL  DATA  FOR  THE  RUN
--------------------------------------------------------------------------------

General flags:
     imin    =       0, nmropt  =       0

Nature and format of input:
     ntx     =       1, irest   =       0, ntrx    =       1

Nature and format of output:
     ntxo    =       1, ntpr    =     100, ntrx    =       1, ntwr    =     500
     iwrap   =       0, ntwx    =     100, ntwv    =       0, ntwe    =       0
     ioutfm  =       0, ntwprt  =       0, idecomp =       0, rbornstat=      0

Potential function:
     ntf     =       1, ntb     =       0, igb     =       1, nsnb    =      25
     ipol    =       0, gbsa    =       0, iesp    =       0
     dielc   =   1.00000, cut     =  12.00000, intdiel =   1.00000
     saltcon =   0.00000, offset  =   0.09000, gbalpha=    1.00000
     gbbeta  =   0.00000, gbgamma =   0.00000, surften =   0.00500
     rdt     =   0.00000, rgbmax  =  25.00000  extdiel =  78.50000
     alpb  =        0

Frozen or restrained atoms:
     ibelly  =       0, ntr     =       0

Molecular dynamics:
     nstlim  =    100000, nscm    =      1000, nrespa  =         1
     t       =   0.00000, dt      =   0.00100, vlimit  =  20.00000

Langevin dynamics temperature regulation:
     ig      =   71277
     temp0   = 300.00000, tempi   = 300.00000, gamma_ln=   1.00000

--------------------------------------------------------------------------------
   3.  ATOMIC COORDINATES AND VELOCITIES
--------------------------------------------------------------------------------

 begin time read from input coords =     0.000 ps

 Number of triangulated 3-point waters found:        0

--------------------------------------------------------------------------------
   4.  RESULTS
 NSTEP =        0   TIME(PS) =       0.000  TEMP(K) =   297.60  PRESS =     0.0
 Etot   =     -2750.8246  EKtot   =       565.9592  EPtot      =     -3316.7837
 BOND   =        19.8854  ANGLE   =        92.7853  DIHED      =       386.5310
 1-4 NB =       147.6978  1-4 EEL =      -361.5776  VDWAALS    =      -359.4989
 EELEC  =     -2252.1602  EGB     =      -990.4465  RESTRAINT  =         0.0000
 ------------------------------------------------------------------------------

      A V E R A G E S   O V E R  100000 S T E P S

 NSTEP =   100000   TIME(PS) =     100.000  TEMP(K) =   297.92  PRESS =     0.0
 Etot   =     -2186.9544  EKtot   =       566.5697  EPtot      =     -2753.5240
 BOND   =       228.4957  ANGLE   =       329.2655  DIHED      =       449.8017
 1-4 NB =       156.2659  1-4 EEL =      -352.8135  VDWAALS    =      -329.3790
 EELEC  =     -1108.3915  EGB     =     -2126.7688  RESTRAINT  =         0.0000
 ------------------------------------------------------------------------------

      R M S  F L U C T U A T I O N S

 NSTEP =   100000   TIME(PS) =     100.000  TEMP(K) =    13.34  PRESS =     0.0
 Etot   =        45.2363  EKtot   =        25.3746  EPtot      =        27.1644
 BOND   =        13.8396  ANGLE   =        16.8849  DIHED      =         8.5273
 1-4 NB =         4.4497  1-4 EEL =        13.2895  VDWAALS    =         7.2375
 EELEC  =       223.6319  EGB     =       221.0010  RESTRAINT  =         0.0000
 ------------------------------------------------------------------------------
