-------------------------------------------------------
          Amber 14 SANDER                              2014
          -------------------------------------------------------

  [-O]verwriting output

File Assignments:

 Here is the input file:

10-mer DNA MD in-vacuo, 12 angstrom cut off
 &cntrl
  imin = 0, ntb = 0,
  igb = 0, ntpr = 100, ntwx = 100,
  ntt = 3, gamma_ln = 1.0,
  tempi = 300.0, temp0 = 300.0
  nstlim = 100000, dt = 0.001,
  cut = 12.0
 /

--------------------------------------------------------------------------------
   1.  RESOURCE   USE:
--------------------------------------------------------------------------------

 NATOM  =     638 NTYPES =      14 NBONH =     234 MBONA  =     452
 NTHETH =     554 MTHETA =     694 NPHIH =    1100 MPHIA  =    1276
 NHPARM =       0 NPARM  =       0 NNB   =    3544 NRES   =      20
 NBONA  =     452 NTHETA =     694 NPHIA =    1276 NUMBND =      36
 NUMANG =      69 NPTRA  =      45 NATYP =      25 NPHB   =       0
 IFBOX  =       0 NMXRS  =      33 IFCAP =       0 NEXTRA =       0
 NCOPY  =       0

--------------------------------------------------------------------------------
   2.  CONTROL  DATA  FOR  THE  RUN
--------------------------------------------------------------------------------

General flags:
     imin    =       0, nmropt  =       0

Nature and format of input:
     ntx     =       1, irest   =       0, ntrx    =       1

Nature and format of output:
     ntxo    =       1, ntpr    =     100, ntrx    =       1, ntwr    =     500
     iwrap   =       0, ntwx    =     100, ntwv    =       0, ntwe    =       0
     ioutfm  =       0, ntwprt  =       0, idecomp =       0, rbornstat=      0

Potential function:
     ntf     =       1, ntb     =       0, igb     =       0, nsnb    =      25
     ipol    =       0, gbsa    =       0, iesp    =       0
     dielc   =   1.00000, cut     =  12.00000, intdiel =   1.00000

Frozen or restrained atoms:
     ibelly  =       0, ntr     =       0

Molecular dynamics:
     nstlim  =    100000, nscm    =      1000, nrespa  =         1
     t       =   0.00000, dt      =   0.00100, vlimit  =  20.00000

Langevin dynamics temperature regulation:
     ig      =   71277
     temp0   = 300.00000, tempi   = 300.00000, gamma_ln=   1.00000

--------------------------------------------------------------------------------
   3.  ATOMIC COORDINATES AND VELOCITIES
--------------------------------------------------------------------------------

 begin time read from input coords =     0.000 ps

 Number of triangulated 3-point waters found:        0

     Sum of charges from parm topology file = -17.99999992

--------------------------------------------------------------------------------
   4.  RESULTS
 NSTEP =        0   TIME(PS) =       0.000  TEMP(K) =   297.60  PRESS =     0.0
 Etot   =     -1767.1574  EKtot   =       565.9592  EPtot      =     -2333.1166
 BOND   =        16.1950  ANGLE   =        91.3196  DIHED      =       392.1141
 1-4 NB =       162.9680  1-4 EEL =      -347.7440  VDWAALS    =      -349.1563
 EELEC  =     -2298.8130  EHBOND  =         0.0000  RESTRAINT  =         0.0000
 ------------------------------------------------------------------------------

      A V E R A G E S   O V E R  100000 S T E P S

 NSTEP =   100000   TIME(PS) =     100.000  TEMP(K) =   299.30  PRESS =     0.0
 Etot   =       -51.7776  EKtot   =       569.1930  EPtot      =      -620.9707
 BOND   =       226.4098  ANGLE   =       330.2340  DIHED      =       469.2143
 1-4 NB =       167.2158  1-4 EEL =      -348.8599  VDWAALS    =      -304.3686
 EELEC  =     -1160.8161  EHBOND  =         0.0000  RESTRAINT  =         0.0000
 ------------------------------------------------------------------------------

      R M S  F L U C T U A T I O N S

 NSTEP =   100000   TIME(PS) =     100.000  TEMP(K) =    13.06  PRESS =     0.0
 Etot   =       241.9174  EKtot   =        24.8306  EPtot      =       236.3159
 BOND   =        14.5032  ANGLE   =        16.5662  DIHED      =         9.2781
 1-4 NB =         4.7244  1-4 EEL =        13.2411  VDWAALS    =        10.1383
 EELEC  =       230.9515  EHBOND  =         0.0000  RESTRAINT  =         0.0000
 ------------------------------------------------------------------------------
